Circuit: * C:\Users\hb298\Desktop\LTSpice\ECP_IMPLY\Approximate_Full_adder\1bit_approximate_adderFinal2023_3\1bit_approximate_adder.asc

v1: Removing PWL point (1e-09,0)
v1: Removing PWL point (0.00015,0)
v2: Removing PWL point (1e-09,0)
v3: Removing PWL point (1e-09,0)
v4: Removing PWL point (9e-05,0)
v4: Removing PWL point (0.00018,0)
v10: Removing PWL point (1e-09,0)
v10: Removing PWL point (0.00015,0)
v12: Removing PWL point (1e-09,0)
v12: Removing PWL point (6e-05,1)
v13: Removing PWL point (1e-09,0)
v13: Removing PWL point (0.00015,1)
v14: Removing PWL point (3e-05,1)
v14: Removing PWL point (9e-05,0)
v14: Removing PWL point (0.00018,0)
WARNING: Less than two connections to node a1.  This node is used by e:x1:1.
WARNING: Less than two connections to node b1.  This node is used by e:x2:1.
WARNING: Less than two connections to node c.  This node is used by e:x3:1.
WARNING: Less than two connections to node s1.  This node is used by e:x4:1.
Direct Newton iteration for .op point succeeded.

Date: Mon Dec 11 15:21:41 2023
Total elapsed time: 0.094 seconds.

tnom = 27
temp = 27
method = modified trap
totiter = 3167
traniter = 3164
tranpoints = 1291
accept = 1245
rejected = 46
matrix size = 61
fillins = 4
solver = Normal
Avg thread counts: 3.5/2.6/2.7/1.7
Matrix Compiler1: 1.90 KB object code size  0.3/0.5/[0.2]
Matrix Compiler2: off  [0.2]/0.8/0.2

