Circuit: * C:\Users\hb298\Desktop\LTSpice\ECP_IMPLY\1bit_axact_adder\VTEAM_knowm.asc

ERROR: Node VN is floating and connected to current source FV
WARNING: Node VP is floating.

WARNING: Less than two connections to node s.  This node is used by e1.
Direct Newton iteration for .op point succeeded.

Date: Thu Nov 30 13:38:34 2023
Total elapsed time: 0.439 seconds.

tnom = 27
temp = 27
method = modified trap
totiter = 60037
traniter = 60034
tranpoints = 30018
accept = 30018
rejected = 0
matrix size = 12
fillins = 5
solver = Normal
Avg thread counts: 1.0/1.1/1.1/1.0
Matrix Compiler1: 598 bytes object code size  0.3/0.2/[0.1]
Matrix Compiler2: 840 bytes object code size  0.1/0.2/[0.1]

