Circuit: * D:\Master\Emerging_Computing\epcExercise\ex04\3 - bit adder\3bit_exact_adder.asc

V9: Removing PWL point (1e-009,0)
V9: Removing PWL point (0.00021,0)
V9: Removing PWL point (0.0003,0)
V9: Removing PWL point (0.00039,0)
V9: Removing PWL point (0.00048,1)
V9: Removing PWL point (0.00057,0)
V7: Removing PWL point (1e-009,0)
V7: Removing PWL point (0.00021,0)
V7: Removing PWL point (0.0003,0)
V7: Removing PWL point (0.00039,0)
V7: Removing PWL point (0.00051,1)
V7: Removing PWL point (0.00057,0)
V24: Removing PWL point (1e-009,0)
V24: Removing PWL point (0.00012,1)
V24: Removing PWL point (0.00018,0)
V24: Removing PWL point (0.00027,0)
V24: Removing PWL point (0.00054,1)
V24: Removing PWL point (0.0006,0)
V23: Removing PWL point (1e-009,0)
V23: Removing PWL point (0.00012,0)
V23: Removing PWL point (0.00018,1)
V23: Removing PWL point (0.0003,0)
V23: Removing PWL point (0.00039,1)
V23: Removing PWL point (0.00048,0)
V23: Removing PWL point (0.00063,0)
V21: Removing PWL point (1e-009,0)
V21: Removing PWL point (0.00018,0)
V21: Removing PWL point (0.00027,0)
V21: Removing PWL point (0.00054,0.9)
V21: Removing PWL point (0.0006,0)
V11: Removing PWL point (1e-009,0)
V11: Removing PWL point (0.00012,0)
V11: Removing PWL point (0.00024,1)
V11: Removing PWL point (0.0003,0)
V11: Removing PWL point (0.00048,0)
V11: Removing PWL point (0.00063,0)
V17: Removing PWL point (1e-009,0)
V17: Removing PWL point (0.00012,1)
V17: Removing PWL point (0.00018,0)
V17: Removing PWL point (0.00027,0)
V17: Removing PWL point (0.00054,1)
V17: Removing PWL point (0.0006,0)
V16: Removing PWL point (1e-009,0)
V16: Removing PWL point (0.00012,0)
V16: Removing PWL point (0.00018,1)
V16: Removing PWL point (0.0003,0)
V16: Removing PWL point (0.00039,1)
V16: Removing PWL point (0.00048,0)
V16: Removing PWL point (0.00063,0)
V8: Removing PWL point (1e-009,0)
V8: Removing PWL point (0.00018,0)
V8: Removing PWL point (0.00027,0)
V8: Removing PWL point (0.00054,0.9)
V8: Removing PWL point (0.0006,0)
V6: Removing PWL point (1e-009,0)
V6: Removing PWL point (0.00012,0)
V6: Removing PWL point (0.00024,1)
V6: Removing PWL point (0.0003,0)
V6: Removing PWL point (0.00048,0)
V6: Removing PWL point (0.00063,0)
V15: Removing PWL point (1e-009,0)
V15: Removing PWL point (0.00021,0)
V15: Removing PWL point (0.0003,0)
V15: Removing PWL point (0.00039,0)
V15: Removing PWL point (0.00048,1)
V15: Removing PWL point (0.00057,0)
V14: Removing PWL point (0.00018,0)
V14: Removing PWL point (0.0003,1)
V14: Removing PWL point (0.00048,0)
V13: Removing PWL point (1e-009,0)
V13: Removing PWL point (0.00033,1)
V13: Removing PWL point (0.00039,0)
V13: Removing PWL point (0.00057,1)
V12: Removing PWL point (1e-009,0)
V12: Removing PWL point (0.00012,1)
V12: Removing PWL point (0.00018,0)
V12: Removing PWL point (0.00027,0)
V12: Removing PWL point (0.00054,1)
V12: Removing PWL point (0.0006,0)
V10: Removing PWL point (1e-009,0)
V10: Removing PWL point (0.00012,0)
V10: Removing PWL point (0.00018,1)
V10: Removing PWL point (0.0003,0)
V10: Removing PWL point (0.00039,1)
V10: Removing PWL point (0.00048,0)
V10: Removing PWL point (0.00063,0)
V5: Removing PWL point (1e-009,0)
V5: Removing PWL point (0.00039,0)
V4: Removing PWL point (1e-009,0)
V4: Removing PWL point (0.00021,0)
V4: Removing PWL point (0.0003,0)
V4: Removing PWL point (0.00039,0)
V4: Removing PWL point (0.00051,1)
V4: Removing PWL point (0.00057,0)
V3: Removing PWL point (1e-009,0)
V3: Removing PWL point (0.00018,0)
V3: Removing PWL point (0.00027,0)
V3: Removing PWL point (0.00054,0.9)
V3: Removing PWL point (0.0006,0)
V2: Removing PWL point (0.00018,0)
V2: Removing PWL point (0.00048,0)
V1: Removing PWL point (1e-009,0)
V1: Removing PWL point (0.00012,0)
V1: Removing PWL point (0.00024,1)
V1: Removing PWL point (0.0003,0)
V1: Removing PWL point (0.00048,0)
V1: Removing PWL point (0.00063,0)
WARNING: Less than two connections to node A1.  This node is used by E:X8:1.
WARNING: Less than two connections to node B3.  This node is used by E:X1:1.
WARNING: Less than two connections to node C.  This node is used by E:X2:1.
WARNING: Less than two connections to node S1.  This node is used by E:X3:1.
WARNING: Less than two connections to node S2.  This node is used by E:X4:1.
WARNING: Less than two connections to node A3.  This node is used by E:X5:1.
WARNING: Less than two connections to node B2.  This node is used by E:X6:1.
WARNING: Less than two connections to node A2.  This node is used by E:X7:1.
WARNING: Less than two connections to node B1.  This node is used by E:X11:1.
WARNING: Less than two connections to node S3.  This node is used by E:X9:1.
Direct Newton iteration for .op point succeeded.

Date: Mon Dec 11 15:19:57 2023
Total elapsed time: 0.449 seconds.

tnom = 27
temp = 27
method = modified trap
totiter = 5450
traniter = 5447
tranpoints = 1824
accept = 1687
rejected = 137
matrix size = 151
fillins = 10
solver = Normal
Thread vector: 27.2/14.6[4] 1.6/3.1[1] 4.8/3.4[4] 0.4/2.1[1]  2592/500
Matrix Compiler1: 4.69 KB object code size  2.4/1.3/[0.3]
Matrix Compiler2: 9.21 KB object code size  1.4/2.5/[0.4]

