Circuit: * C:\Users\un303\Downloads\Approximate_Full_adder\Approximate_Full_adder\1bit_approximate_adderFinal2023_2\1bit_approximate_adder.asc

v1: Removing PWL point (1e-09,0)
v2: Removing PWL point (1e-09,0)
v2: Removing PWL point (9e-05,0.9)
v2: Removing PWL point (0.00015,0)
v2: Removing PWL point (0.00027,1)
v3: Removing PWL point (1e-09,0)
v3: Removing PWL point (0.00021,0)
v4: Removing PWL point (0.00021,0)
v5: Removing PWL point (1e-09,0)
v5: Removing PWL point (0.00015,0)
v5: Removing PWL point (0.00024,0)
v10: Removing PWL point (1e-09,0)
v12: Removing PWL point (1e-09,0)
v12: Removing PWL point (9e-05,1)
v12: Removing PWL point (0.00015,0)
v12: Removing PWL point (0.00024,1)
v13: Removing PWL point (1e-09,0)
v13: Removing PWL point (0.00021,0)
v14: Removing PWL point (0.00015,1)
v14: Removing PWL point (0.00021,0)
v15: Removing PWL point (1e-09,0)
v15: Removing PWL point (0.00015,0)
v15: Removing PWL point (0.00024,0)
WARNING: Less than two connections to node a1.  This node is used by e:x1:1.
WARNING: Less than two connections to node b1.  This node is used by e:x2:1.
WARNING: Less than two connections to node c.  This node is used by e:x3:1.
WARNING: Less than two connections to node s1.  This node is used by e:x4:1.
WARNING: Less than two connections to node s2.  This node is used by e:x5:1.
Direct Newton iteration for .op point succeeded.

Date: Tue Dec 12 13:17:49 2023
Total elapsed time: 0.071 seconds.

tnom = 27
temp = 27
method = modified trap
totiter = 3417
traniter = 3414
tranpoints = 1379
accept = 1318
rejected = 61
matrix size = 76
fillins = 5
solver = Normal
Avg thread counts: 5.7/3.9/4.0/2.2
Matrix Compiler1: 2.37 KB object code size  0.4/0.4/[0.2]
Matrix Compiler2: off  [0.2]/0.7/0.3

