Circuit: * D:\Master\Emerging_Computing\epcExercise\ex05\1-bit approximate adder(5 algorithms) algorithms\1-bit approximate adder algorithms\Algo_1\1bit_approximate_adder.asc

V15: Removing PWL point (1e-009,0)
V14: Removing PWL point (0.00021,1)
V13: Removing PWL point (1e-009,0)
V13: Removing PWL point (0.00015,1)
V13: Removing PWL point (0.00021,0)
V12: Removing PWL point (1e-009,0)
V12: Removing PWL point (0.00015,0)
V10: Removing PWL point (1e-009,0)
V10: Removing PWL point (0.00012,0)
V5: Removing PWL point (1e-009,0)
V3: Removing PWL point (1e-009,0)
V3: Removing PWL point (0.00021,0)
V2: Removing PWL point (1e-009,0)
V2: Removing PWL point (0.00015,0)
V1: Removing PWL point (1e-009,0)
V1: Removing PWL point (0.00012,0)
WARNING: Less than two connections to node A1.  This node is used by E:X1:1.
WARNING: Less than two connections to node B1.  This node is used by E:X2:1.
WARNING: Less than two connections to node C.  This node is used by E:X3:1.
WARNING: Less than two connections to node S1.  This node is used by E:X4:1.
WARNING: Less than two connections to node S2.  This node is used by E:X5:1.
Direct Newton iteration for .op point succeeded.

Date: Wed Dec 13 12:08:17 2023
Total elapsed time: 0.447 seconds.

tnom = 27
temp = 27
method = modified trap
totiter = 3231
traniter = 3228
tranpoints = 1309
accept = 1259
rejected = 50
matrix size = 76
fillins = 5
solver = Normal
Thread vector: 59.0/32.4[2] 2.8/4.1[1] 3.8/5.7[1] 0.6/4.8[1]  2592/500
Matrix Compiler1: 2.35 KB object code size  2.4/1.7/[0.6]
Matrix Compiler2: 4.63 KB object code size  2.0/3.0/[1.0]

