Circuit: * C:\Users\un303\Desktop\Exercise 4\Imply Logic new.asc

v1: Removing PWL point (1e-09,0)
v1: Removing PWL point (9e-05,1)
v3: Removing PWL point (1e-09,0)
v3: Removing PWL point (6e-05,1)
v3: Removing PWL point (0.00021,1)
v4: Removing PWL point (0.00015,1)
v4: Removing PWL point (0.00027,1)
WARNING: Less than two connections to node b.  This node is used by e:x1:1.
WARNING: Less than two connections to node a.  This node is used by e:x2:1.
Direct Newton iteration for .op point succeeded.

Date: Mon Dec  4 15:30:21 2023
Total elapsed time: 0.059 seconds.

tnom = 27
temp = 27
method = modified trap
totiter = 2768
traniter = 2765
tranpoints = 1267
accept = 1238
rejected = 29
matrix size = 31
fillins = 2
solver = Normal
Avg thread counts: 2.4/4.1/4.2/2.4
Matrix Compiler1: 982 bytes object code size  0.6/0.3/[0.1]
Matrix Compiler2: 1.88 KB object code size  0.3/0.4/[0.1]

